*Heading
** Job name: BuckleBeam_y1_Left_mesh4-50 Model name: Buckle_Beam
** Generated by: Abaqus/CAE 2021
*Preprint, echo=NO, model=NO, history=NO, contact=NO
**
** PARTS
**
*Part, name=Buckle_Beam
*Node
      1,           0.,         -50.
      2,           0.,          50.
      3,          -1.,          50.
      4,          -1.,         -50.
      5,           1.,         -50.
      6,           1.,          50.
      7,           0.,  -48.9898987
      8,           0.,  -47.9797974
      9,           0.,   -46.969696
     10,           0.,  -45.9595947
     11,           0.,  -44.9494934
     12,           0.,  -43.9393921
     13,           0.,  -42.9292946
     14,           0.,  -41.9191933
     15,           0.,  -40.9090919
     16,           0.,  -39.8989906
     17,           0.,  -38.8888893
     18,           0.,   -37.878788
     19,           0.,  -36.8686867
     20,           0.,  -35.8585854
** ... 480 like lines cut
*Element, type=CPE3
  1,   1,   7, 305
  2, 305, 204,   1
  3,   7,   8, 306
  4, 306, 305,   7
  5,   8,   9, 307
  6, 307, 306,   8
  7,   9,  10, 308
  8, 308, 307,   9
  9,  10,  11, 309
 10, 309, 308,  10
 11,  11,  12, 310
 12, 310, 309,  11
 13,  12,  13, 311
 14, 311, 310,  12
 15,  13,  14, 312
 16, 312, 311,  13
 17,  14,  15, 313
 18, 313, 312,  14
 19,  15,  16, 314
 20, 314, 313,  15
** ... 772 like lines cut
*Nset, nset=Buckle_Beam, generate
   1,  500,    1
*Elset, elset=Buckle_Beam, generate
   1,  792,    1
*Nset, nset=TopEdge
   2,   3,   6, 105, 304
*Elset, elset=TopEdge
 197, 395, 398, 596
*Nset, nset=BottomEdge
   1,   4,   5, 204, 205
*Elset, elset=BottomEdge
   2, 200, 593, 791
*Nset, nset=Top_Center
 2,
*Nset, nset=Bottom_Center
 1,
*Nset, nset=Bottom_Edge
 4, 5
*Nset, nset=Top_Corner
 3, 6
*Nset, nset=Bottom_Corner
 4, 5
*Elset, elset=_LeftSurf_S1, internal, generate
 200,  396,    2
*Surface, type=ELEMENT, name=LeftSurf
_LeftSurf_S1, S1
*Elset, elset=_RightSurf_S1, internal, generate
 596,  792,    2
*Surface, type=ELEMENT, name=RightSurf
_RightSurf_S1, S1
** Section: VPS
*Solid Section, elset=Buckle_Beam, controls=EC-1, material=VPS
,
*End Part
**  
*Part, name=Indenter_Left
*Node
      1,           0.,          10.
      2,           0.,         -10.
      3,   3.09016991,    9.5105648
      4,   5.87785244,   8.09016991
      5,   8.09016991,   5.87785244
      6,    9.5105648,   3.09016991
      7,          10.,           0.
      8,    9.5105648,  -3.09016991
      9,   8.09016991,  -5.87785244
     10,   5.87785244,  -8.09016991
     11,   3.09016991,   -9.5105648
     12,           0.,           8.
     13,           0.,           6.
     14,           0.,           4.
     15,           0.,           2.
     16,           0.,           0.
     17,           0.,          -2.
     18,           0.,          -4.
     19,           0.,          -6.
     20,           0.,          -8.
** ... 21 like lines cut
*Element, type=CPE4R
 1,  3,  1, 12, 27
 2, 13, 21, 27, 12
 3, 21, 28, 38, 27
 4, 21, 13, 14, 22
 5, 36, 38, 28, 33
 6, 29, 22, 23, 30
 7, 15, 23, 22, 14
 8, 22, 29, 28, 21
 9, 41, 23, 15, 16
10, 30, 31, 34, 33
11, 24, 41, 16, 17
12, 33, 34,  7,  6
13, 18, 25, 24, 17
14, 25, 26, 32, 31
15, 19, 26, 25, 18
16, 40, 39, 11, 10
17,  4,  3, 27, 38
18, 36, 33,  6,  5
19, 30, 23, 41, 31
20, 24, 25, 31, 41
** ... 10 like lines cut
*Nset, nset=Indenter_Left, generate
  1,  41,   1
*Elset, elset=Indenter_Left, generate
  1,  30,   1
*Elset, elset=_Indenter_Surf_Left_S1, internal
  1, 17, 27, 28
*Elset, elset=_Indenter_Surf_Left_S3, internal
 12, 16, 18, 24, 29, 30
*Surface, type=ELEMENT, name=Indenter_Surf_Left
_Indenter_Surf_Left_S1, S1
_Indenter_Surf_Left_S3, S3
** Section: Indenter
*Solid Section, elset=Indenter_Left, controls=EC-2, material=Indenter
,
*End Part
**  
*Part, name=Indenter_Right
*Node
      1,           0.,          10.
      2,           0.,         -10.
      3,  -3.09016991,   -9.5105648
      4,  -5.87785244,  -8.09016991
      5,  -8.09016991,  -5.87785244
      6,   -9.5105648,  -3.09016991
      7,         -10.,           0.
      8,   -9.5105648,   3.09016991
      9,  -8.09016991,   5.87785244
     10,  -5.87785244,   8.09016991
     11,  -3.09016991,    9.5105648
     12,           0.,           8.
     13,           0.,           6.
     14,           0.,           4.
     15,           0.,           2.
     16,           0.,           0.
     17,           0.,          -2.
     18,           0.,          -4.
     19,           0.,          -6.
     20,           0.,          -8.
** ... 20 like lines cut
*Element, type=CPE4R
 1,  1, 11, 38, 12
 2, 13, 12, 38, 21
 3, 22, 39, 28, 30
 4, 33, 31, 30, 28
 5, 23, 22, 30, 31
 6, 24, 23, 31, 32
 7, 31, 33, 34, 32
 8, 26, 29, 36, 27
 9,  3,  2, 20, 27
10, 13, 21, 22, 14
11, 15, 23, 24, 16
12, 16, 24, 25, 17
13, 25, 40, 18, 17
14, 40, 26, 19, 18
15, 19, 26, 27, 20
16, 39, 38, 11, 10
17,  9, 28, 39, 10
18, 14, 22, 23, 15
19,  7, 34, 33,  8
20,  6, 35, 34,  7
** ... 9 like lines cut
*Nset, nset=Indenter_Right, generate
  1,  40,   1
*Elset, elset=Indenter_Right, generate
  1,  29,   1
*Elset, elset=_Indenter_Surf_Right_S1, internal
  1,  9, 21, 23
*Elset, elset=_Indenter_Surf_Right_S3, internal
 16,
*Elset, elset=_Indenter_Surf_Right_S4, internal
 17, 19, 20, 25
*Elset, elset=_Indenter_Surf_Right_S2, internal
 28,
*Surface, type=ELEMENT, name=Indenter_Surf_Right
_Indenter_Surf_Right_S1, S1
_Indenter_Surf_Right_S3, S3
_Indenter_Surf_Right_S4, S4
_Indenter_Surf_Right_S2, S2
** Section: Indenter
*Solid Section, elset=Indenter_Right, controls=EC-2, material=Indenter
,
*End Part
**  
**
** ASSEMBLY
**
*Assembly, name=Assembly
**  
*Instance, name=Buckle_Beam-1, part=Buckle_Beam
*End Instance
**  
*Instance, name=Indenter_Left-1, part=Indenter_Left
        -36.,           0.,           0.
*End Instance
**  
*Instance, name=Indenter_Right-1, part=Indenter_Right
         12.,           0.,           0.
*End Instance
**  
*End Assembly
** 
** ELEMENT CONTROLS
** 
*Section Controls, name=EC-1, DISTORTION CONTROL=YES
1., 1., 1.
*Section Controls, name=EC-2, DISTORTION CONTROL=YES, hourglass=ENHANCED
1., 1., 1.
** 
** MATERIALS
** 
*Material, name=Indenter
*Density
 1e-09,
*Elastic
1000., 0.3
*Material, name=VPS
*Density
 1e-09,
*Elastic
 0.18, 0.45
** 
** INTERACTION PROPERTIES
** 
*Surface Interaction, name=IntProp-1
1.,
*Friction
0.,
*Surface Behavior, pressure-overclosure=HARD
** 
** BOUNDARY CONDITIONS
** 
** Name: BottomClamp Type: Displacement/Rotation
*Boundary
Buckle_Beam-1.BottomEdge, 1, 1
Buckle_Beam-1.BottomEdge, 2, 2
** 
** INTERACTIONS
** 
** Interaction: Left_Contact
*Contact Pair, interaction=IntProp-1
Buckle_Beam-1.LeftSurf, Indenter_Left-1.Indenter_Surf_Left
** Interaction: Right_Contact
*Contact Pair, interaction=IntProp-1
Buckle_Beam-1.RightSurf, Indenter_Right-1.Indenter_Surf_Right
** ----------------------------------------------------------------
** 
** STEP: Compression
** 
*Step, name=Compression, nlgeom=YES, inc=100000000
*Dynamic
0.1,100.,1e-06
** 
** BOUNDARY CONDITIONS
** 
** Name: Load Type: Velocity/Angular velocity
*Boundary, type=VELOCITY
Buckle_Beam-1.TopEdge, 1, 1
Buckle_Beam-1.TopEdge, 2, 2, -0.01
** Name: Right_Indent Type: Velocity/Angular velocity
*Boundary, type=VELOCITY
Indenter_Right-1.Indenter_Right, 1, 1, -0.03
Indenter_Right-1.Indenter_Right, 2, 2
** 
** OUTPUT REQUESTS
** 
*Restart, write, frequency=0
** 
** FIELD OUTPUT: F-Output-1
** 
*Output, field, variable=PRESELECT, frequency=1
** 
** HISTORY OUTPUT: H-Output-1
** 
*Output, history, variable=PRESELECT, frequency=1
*End Step
** ----------------------------------------------------------------
** 
** STEP: Rotate
** 
*Step, name=Rotate, nlgeom=YES, inc=100000000
*Dynamic
0.1,100.,1e-06
** 
** BOUNDARY CONDITIONS
** 
** Name: Load Type: Velocity/Angular velocity
*Boundary, type=VELOCITY
Buckle_Beam-1.TopEdge, 2, 2
** Name: Right_Indent Type: Velocity/Angular velocity
*Boundary, type=VELOCITY
Indenter_Right-1.Indenter_Right, 1, 1, 0.3
** 
** OUTPUT REQUESTS
** 
*Restart, write, frequency=0
** 
** FIELD OUTPUT: F-Output-1
** 
*Output, field, variable=PRESELECT, frequency=1
** 
** HISTORY OUTPUT: H-Output-1
** 
*Output, history, variable=PRESELECT, frequency=1
*End Step
** ----------------------------------------------------------------
** 
** STEP: Equilibrium
** 
*Step, name=Equilibrium, nlgeom=YES, inc=10000000
*Static
1e-05, 1., 1e-10, 1.
** 
** BOUNDARY CONDITIONS
** 
** Name: Right_Indent Type: Velocity/Angular velocity
*Boundary, type=VELOCITY
Indenter_Right-1.Indenter_Right, 1, 1
** 
** OUTPUT REQUESTS
** 
*Restart, write, frequency=0
** 
** FIELD OUTPUT: F-Output-1
** 
*Output, field, variable=PRESELECT
** 
** HISTORY OUTPUT: H-Output-1
** 
*Output, history, variable=PRESELECT
*End Step
** ----------------------------------------------------------------
** 
** STEP: Saddle
** 
*Step, name=Saddle, nlgeom=YES, inc=1000000000
*Dynamic
0.001,100.,1e-06
** 
** OUTPUT REQUESTS
** 
*Restart, write, frequency=0
** 
** FIELD OUTPUT: F-Output-1
** 
*Output, field, variable=PRESELECT, frequency=1
** 
** HISTORY OUTPUT: H-Output-1
** 
*Output, history, variable=PRESELECT, frequency=1
*End Step
