*Heading
** Job name: t06_L5_theta40-50_twobeam_mesh4-50_indent5_n200_Quasi_mu1_lambda3_E100_nu03 Model name: t06_L5_theta40-50_TwoBeam
** Generated by: Abaqus/CAE 2021
*Preprint, echo=NO, model=NO, history=NO, contact=NO
**
** PARTS
**
*Part, name=t06_L5_theta40-50_twobeam
*Node
      1,          2.5,   3.20000005
      2,   1.72000003,   3.20000005
      3,   4.92000008,           0.
      4,   5.69999981,           0.
      5,         -2.5,   3.20000005
      6,  -1.60000002,   3.20000005
      7,          2.5,   6.19999981
      8,         -2.5,   6.19999981
      9,  -6.31361151,           0.
     10,  -5.41361141,           0.
     11,   2.30500007,   3.20000005
     12,    2.1099999,   3.20000005
     13,   1.91499996,   3.20000005
     14,   1.78400004,   3.13599992
     15,   1.84800005,   3.07200003
     16,   1.91199994,    3.0079999
     17,   1.97599995,   2.94400001
     18,   2.03999996,   2.88000011
     19,   2.10400009,   2.81599998
     20,   2.16799998,   2.75200009
** ... 744 like lines cut
*Element, type=CPE3
  1,   1,  11, 273
  2, 273, 114,   1
  3,  11,  12, 274
  4, 274, 273,  11
  5,  12,  13, 275
  6, 275, 274,  12
  7,  13,   2,  14
  8,  14, 275,  13
  9, 114, 273, 276
 10, 276, 113, 114
 11, 273, 274, 277
 12, 277, 276, 273
 13, 274, 275, 278
 14, 278, 277, 274
 15, 275,  14,  15
 16,  15, 278, 275
 17, 113, 276, 279
 18, 279, 112, 113
 19, 276, 277, 280
 20, 280, 279, 276
** ... 1240 like lines cut
*Nset, nset=TopEdge
   7,   8, 141, 142, 143, 144, 145, 146, 147, 148, 149, 150, 151, 152, 153, 154
 155, 156, 157, 158, 159, 160, 161, 162
*Elset, elset=TopEdge, generate
 816,  860,    2
*Nset, nset=Hard_Mater
   1,   2,   5,   6,   7,   8,  11,  12,  13, 115, 116, 117, 118, 119, 120, 121
 122, 123, 124, 125, 126, 127, 128, 129, 130, 131, 132, 133, 134, 135, 136, 137
 138, 139, 140, 141, 142, 143, 144, 145, 146, 147, 148, 149, 150, 151, 152, 153
 154, 155, 156, 157, 158, 159, 160, 161, 162, 163, 164, 165, 166, 167, 168, 169
 170, 171, 420, 421, 422, 423, 424, 425, 426, 427, 428, 429, 430, 431, 432, 433
 434, 435, 436, 437, 438, 439, 440, 441, 442, 443, 444, 445, 446, 447, 448, 449
 450, 451, 452, 453, 454, 455, 456, 457, 458, 459, 460, 461, 462, 463, 464, 465
 466, 467, 468, 469, 470, 471, 472, 473, 474, 475, 476, 477, 478, 479, 480, 481
 482, 483, 484, 485, 486, 487, 488, 489, 490, 491, 492, 493, 494, 495, 496, 497
 498, 499, 500, 501, 502, 503, 504, 505, 506, 507, 508, 509, 510, 511, 512, 513
 514, 515, 516, 517, 518, 519, 520, 521, 522, 523, 524, 525, 526, 527, 528, 529
 530, 531, 532, 533, 534, 535, 536, 537, 538, 539, 540, 541, 542, 543, 544, 545
 546, 547, 548, 549, 550, 551, 552, 553, 554, 555, 556, 557, 558, 559, 560, 561
 562, 563, 564, 565, 566, 567, 568, 569, 570, 571, 572, 573, 574, 575, 576, 577
 578, 579, 580, 581, 582, 583, 584, 585, 586, 587, 588, 589, 590, 591, 592, 593
 594, 595, 596, 597, 598, 599, 600, 601, 602, 603, 604, 605, 606, 607, 608, 609
 610, 611, 612, 613, 614, 615, 616, 617
*Elset, elset=Hard_Mater, generate
 401,  860,    1
*Nset, nset=PDMS
   1,   2,   3,   4,   5,   6,   9,  10,  11,  12,  13,  14,  15,  16,  17,  18
  19,  20,  21,  22,  23,  24,  25,  26,  27,  28,  29,  30,  31,  32,  33,  34
  35,  36,  37,  38,  39,  40,  41,  42,  43,  44,  45,  46,  47,  48,  49,  50
  51,  52,  53,  54,  55,  56,  57,  58,  59,  60,  61,  62,  63,  64,  65,  66
  67,  68,  69,  70,  71,  72,  73,  74,  75,  76,  77,  78,  79,  80,  81,  82
  83,  84,  85,  86,  87,  88,  89,  90,  91,  92,  93,  94,  95,  96,  97,  98
  99, 100, 101, 102, 103, 104, 105, 106, 107, 108, 109, 110, 111, 112, 113, 114
 115, 116, 117, 172, 173, 174, 175, 176, 177, 178, 179, 180, 181, 182, 183, 184
 185, 186, 187, 188, 189, 190, 191, 192, 193, 194, 195, 196, 197, 198, 199, 200
 201, 202, 203, 204, 205, 206, 207, 208, 209, 210, 211, 212, 213, 214, 215, 216
 217, 218, 219, 220, 221, 222, 223, 224, 225, 226, 227, 228, 229, 230, 231, 232
 233, 234, 235, 236, 237, 238, 239, 240, 241, 242, 243, 244, 245, 246, 247, 248
 249, 250, 251, 252, 253, 254, 255, 256, 257, 258, 259, 260, 261, 262, 263, 264
 265, 266, 267, 268, 269, 270, 271, 272, 273, 274, 275, 276, 277, 278, 279, 280
 281, 282, 283, 284, 285, 286, 287, 288, 289, 290, 291, 292, 293, 294, 295, 296
 297, 298, 299, 300, 301, 302, 303, 304, 305, 306, 307, 308, 309, 310, 311, 312
 313, 314, 315, 316, 317, 318, 319, 320, 321, 322, 323, 324, 325, 326, 327, 328
 329, 330, 331, 332, 333, 334, 335, 336, 337, 338, 339, 340, 341, 342, 343, 344
 345, 346, 347, 348, 349, 350, 351, 352, 353, 354, 355, 356, 357, 358, 359, 360
 361, 362, 363, 364, 365, 366, 367, 368, 369, 370, 371, 372, 373, 374, 375, 376
** ... 12 like lines cut
*Elset, elset=PDMS
    1,    2,    3,    4,    5,    6,    7,    8,    9,   10,   11,   12,   13,   14,   15,   16
   17,   18,   19,   20,   21,   22,   23,   24,   25,   26,   27,   28,   29,   30,   31,   32
   33,   34,   35,   36,   37,   38,   39,   40,   41,   42,   43,   44,   45,   46,   47,   48
   49,   50,   51,   52,   53,   54,   55,   56,   57,   58,   59,   60,   61,   62,   63,   64
   65,   66,   67,   68,   69,   70,   71,   72,   73,   74,   75,   76,   77,   78,   79,   80
   81,   82,   83,   84,   85,   86,   87,   88,   89,   90,   91,   92,   93,   94,   95,   96
   97,   98,   99,  100,  101,  102,  103,  104,  105,  106,  107,  108,  109,  110,  111,  112
  113,  114,  115,  116,  117,  118,  119,  120,  121,  122,  123,  124,  125,  126,  127,  128
  129,  130,  131,  132,  133,  134,  135,  136,  137,  138,  139,  140,  141,  142,  143,  144
  145,  146,  147,  148,  149,  150,  151,  152,  153,  154,  155,  156,  157,  158,  159,  160
  161,  162,  163,  164,  165,  166,  167,  168,  169,  170,  171,  172,  173,  174,  175,  176
  177,  178,  179,  180,  181,  182,  183,  184,  185,  186,  187,  188,  189,  190,  191,  192
  193,  194,  195,  196,  197,  198,  199,  200,  201,  202,  203,  204,  205,  206,  207,  208
  209,  210,  211,  212,  213,  214,  215,  216,  217,  218,  219,  220,  221,  222,  223,  224
  225,  226,  227,  228,  229,  230,  231,  232,  233,  234,  235,  236,  237,  238,  239,  240
  241,  242,  243,  244,  245,  246,  247,  248,  249,  250,  251,  252,  253,  254,  255,  256
  257,  258,  259,  260,  261,  262,  263,  264,  265,  266,  267,  268,  269,  270,  271,  272
  273,  274,  275,  276,  277,  278,  279,  280,  281,  282,  283,  284,  285,  286,  287,  288
  289,  290,  291,  292,  293,  294,  295,  296,  297,  298,  299,  300,  301,  302,  303,  304
  305,  306,  307,  308,  309,  310,  311,  312,  313,  314,  315,  316,  317,  318,  319,  320
** ... 30 like lines cut
*Nset, nset=BottomEdge
   3,   4,   9,  10,  63,  64,  65, 221, 222, 223
*Elset, elset=BottomEdge
  394,  396,  398,  400, 1254, 1256, 1258, 1260
** Section: PDMS
*Solid Section, elset=PDMS, controls=EC-1, material=PDMS
,
** Section: Hard_Mater
*Solid Section, elset=Hard_Mater, controls=EC-1, material=Hard_Mater
,
*End Part
**  
**
** ASSEMBLY
**
*Assembly, name=Assembly
**  
*Instance, name=t06_L5_theta40-50_twobeam-1, part=t06_L5_theta40-50_twobeam
*End Instance
**  
*End Assembly
** 
** ELEMENT CONTROLS
** 
*Section Controls, name=EC-1, DISTORTION CONTROL=YES
1., 1., 1.
** 
** MATERIALS
** 
*Material, name=Hard_Mater
*Density
 1e-09,
*Elastic
100., 0.3
*Material, name=PDMS
*Density
 1e-09,
*Elastic
 2.75, 0.374
** 
** BOUNDARY CONDITIONS
** 
** Name: BottomClamp Type: Displacement/Rotation
*Boundary
t06_L5_theta40-50_twobeam-1.BottomEdge, 1, 1
t06_L5_theta40-50_twobeam-1.BottomEdge, 2, 2
** Name: TopRestraint Type: Displacement/Rotation
*Boundary
t06_L5_theta40-50_twobeam-1.TopEdge, 1, 1
** ----------------------------------------------------------------
** 
** STEP: Indent
** 
*Step, name=Indent, nlgeom=YES, inc=100000000
*Dynamic,application=QUASI-STATIC,initial=NO
0.001,50.,1e-06
** 
** BOUNDARY CONDITIONS
** 
** Name: Indent Type: Velocity/Angular velocity
*Boundary, type=VELOCITY
t06_L5_theta40-50_twobeam-1.TopEdge, 2, 2, -0.1
** 
** OUTPUT REQUESTS
** 
*Restart, write, frequency=0
** 
** FIELD OUTPUT: F-Output-1
** 
*Output, field, variable=PRESELECT, number interval=200
** 
** HISTORY OUTPUT: H-Output-1
** 
*Output, history, variable=PRESELECT, number interval=200
*End Step
** ----------------------------------------------------------------
** 
** STEP: Equilibrium
** 
*Step, name=Equilibrium, nlgeom=YES, inc=100000000
*Static
1e-05, 1., 1e-10, 1.
** 
** BOUNDARY CONDITIONS
** 
** Name: BottomClamp Type: Displacement/Rotation
*Boundary, op=NEW
t06_L5_theta40-50_twobeam-1.BottomEdge, 1, 1
t06_L5_theta40-50_twobeam-1.BottomEdge, 2, 2
** Name: Indent Type: Velocity/Angular velocity
*Boundary, op=NEW
** Name: TopRestraint Type: Displacement/Rotation
*Boundary, op=NEW
t06_L5_theta40-50_twobeam-1.TopEdge, 1, 1
** 
** OUTPUT REQUESTS
** 
*Restart, write, frequency=0
** 
** FIELD OUTPUT: F-Output-1
** 
*Output, field, variable=PRESELECT
** 
** HISTORY OUTPUT: H-Output-1
** 
*Output, history, variable=PRESELECT
*End Step
