*Heading
** Job name: t05_L10_theta50_50_4unit_dynamics_c460_0929 Model name: t05_L10_theta50-50_TwoBeam_single_Dynamic_0929
** Generated by: Abaqus/CAE 2022
*Preprint, echo=NO, model=NO, history=NO, contact=NO
**
** PARTS
**
*Part, name=t05_L10_theta5050_4unit
*Node
      1,     94.09552, -1.88134493e-07
      2,     94.09552,          -4.
      3,   107.554787,          -4.
      4,   107.554787, -1.88134493e-07
      5,   112.914597, -1.88134493e-07
      6,   112.914597,          -4.
      7,   118.274414,          -4.
      8,   118.274414, -1.88134493e-07
      9,   131.733719,          -4.
     10,   131.733719, -1.88134493e-07
     11,    117.62339,         -14.
     12,   123.556725,  -21.0710678
     13,   124.207741,  -21.0710678
     14,   118.274414,         -14.
     15,   112.914597,  -30.0710678
     16,   112.914597,  -31.0710678
     17,   122.902336,  -31.0710678
     18,   122.902336,  -30.0710678
     19,   102.272476,  -21.0710678
     20,   108.205811,         -14.
** ... 8477 like lines cut
*Element, type=CPS3
  1,    1,  133, 2597
  2, 2597,  162,    1
  3,  133,  134, 2598
  4, 2598, 2597,  133
  5,  134,  135, 2599
  6, 2599, 2598,  134
  7,  135,    2,  136
  8,  136, 2599,  135
  9,  162, 2597, 2600
 10, 2600,  161,  162
 11, 2597, 2598, 2601
 12, 2601, 2600, 2597
 13, 2598, 2599, 2602
 14, 2602, 2601, 2598
 15, 2599,  136,  137
 16,  137, 2602, 2599
 17,  161, 2600, 2603
 18, 2603,  160,  161
 19, 2600, 2601, 2604
 20, 2604, 2603, 2600
** ... 14666 like lines cut
*Nset, nset=PDMS, generate
    1,  8497,     1
*Elset, elset=PDMS, generate
     1,  14686,      1
*Nset, nset=TopEdge
    1,    4,    5,    8,   10,   25,   31,   34,   35,   38,   53,   59,   62,   63,   66,   81
   87,   90,   99,  101,  151,  152,  153,  154,  155,  156,  157,  158,  159,  160,  161,  162
  173,  174,  175,  176,  180,  181,  182,  183,  184,  185,  186,  187,  188,  189,  190,  191
  416,  417,  418,  419,  675,  676,  677,  678,  679,  680,  681,  682,  683,  684,  685,  686
  697,  698,  699,  700,  701,  702,  703,  704,  705,  706,  707,  708,  709,  710,  711,  712
  937,  938,  939,  940, 1196, 1197, 1198, 1199, 1200, 1201, 1202, 1203, 1204, 1205, 1206, 1207
 1218, 1219, 1220, 1221, 1222, 1223, 1224, 1225, 1226, 1227, 1228, 1229, 1230, 1231, 1232, 1233
 1458, 1459, 1460, 1461, 1709, 1710, 1711, 1712, 1713, 1714, 1715, 1716, 1717, 1718, 1719, 1720
 1721, 1722, 1723, 1724, 1949, 1950, 1951, 1952, 1975, 1976, 1977, 1978, 1979, 1980, 1981, 1982
 1983, 1984, 1985, 1986
*Elset, elset=TopEdge
     2,    10,    18,    26,    34,    42,    50,    58,    66,    74,    82,    90,    98,   106,   114,   122
   130,   138,   152,   160,   168,   176,   184,   192,   200,   208,   216,   224,   232,   240,   248,  1564
  1572,  1580,  1588,  1596,  2906,  2934,  2942,  2950,  2958,  2966,  2974,  2982,  2990,  2998,  3006,  3014
  3022,  3030,  3038,  3046,  3054,  3062,  3070,  3084,  3092,  3100,  3108,  3116,  3124,  3132,  3140,  3148
  3156,  3164,  3172,  3180,  4496,  4504,  4512,  4520,  4528,  5838,  5866,  5874,  5882,  5890,  5898,  5906
  5914,  5922,  5930,  5938,  5946,  5954,  5962,  5970,  5978,  5986,  5994,  6002,  6016,  6024,  6032,  6040
  6048,  6056,  6064,  6072,  6080,  6088,  6096,  6104,  6112,  7428,  7436,  7444,  7452,  7460,  8770,  8797
  8805,  8813,  8821,  8829,  8844,  8852,  8860,  8868,  8876,  8884,  8892,  8900,  8908,  8916,  8924,  8932
  8940, 10256, 10264, 10272, 10280, 10288, 10290, 10298, 10306, 10314, 10322, 10330, 10338, 10346, 10354, 10362
 10370, 10378, 10386
*Nset, nset=BottomEdge
   16,   17,   24,   28,   29,   44,   45,   52,   56,   57,   72,   73,   80,   84,   85,   96
   97,  108,  112,  131,  398,  399,  400,  401,  402,  403,  404,  405,  406,  627,  628,  629
  630,  631,  632,  633,  634,  635,  919,  920,  921,  922,  923,  924,  925,  926,  927, 1148
 1149, 1150, 1151, 1152, 1153, 1154, 1155, 1156, 1440, 1441, 1442, 1443, 1444, 1445, 1446, 1447
 1448, 1669, 1670, 1671, 1672, 1673, 1674, 1675, 1676, 1677, 1931, 1932, 1933, 1934, 1935, 1936
 1937, 1938, 1939, 2190, 2191, 2192, 2193, 2194, 2195, 2196, 2197, 2198, 2199, 2200, 2201, 2202
 2203, 2204, 2205, 2206, 2279, 2280, 2281, 2282, 2283, 2284, 2285, 2286, 2303, 2304, 2305, 2306
 2307, 2308, 2309, 2310, 2374, 2375, 2376, 2377, 2378, 2379, 2380, 2381, 2398, 2399, 2400, 2401
 2402, 2403, 2404, 2405, 2469, 2470, 2471, 2472, 2473, 2474, 2475, 2476, 2537, 2538, 2539, 2540
 2541, 2542, 2543, 2544, 2570, 2571, 2572, 2573, 2574, 2575, 2576, 2577
*Elset, elset=BottomEdge
  1537,  1539,  1541,  1543,  1545,  1547,  1549,  1551,  1553,  1555,  2886,  2888,  2890,  2892,  2894,  2896
  2898,  2900,  2902,  2904,  2931,  4469,  4471,  4473,  4475,  4477,  4479,  4481,  4483,  4485,  4487,  5818
  5820,  5822,  5824,  5826,  5828,  5830,  5832,  5834,  5836,  5863,  7401,  7403,  7405,  7407,  7409,  7411
  7413,  7415,  7417,  7419,  8750,  8752,  8754,  8756,  8758,  8760,  8762,  8764,  8766,  8768,  8795, 10229
 10231, 10233, 10235, 10237, 10239, 10241, 10243, 10245, 10247, 11682, 11684, 11686, 11688, 11690, 11692, 11694
 11696, 11698, 11700, 11706, 11707, 11715, 11719, 11777, 11779, 11781, 11824, 11852, 12073, 12075, 12111, 12112
 12113, 12118, 12133, 12135, 12138, 12448, 12449, 12457, 12461, 12521, 12523, 12525, 12568, 12598, 12817, 12822
 12856, 12858, 12863, 12880, 12883, 12916, 12917, 13196, 13197, 13205, 13209, 13269, 13271, 13273, 13318, 13346
 13565, 13603, 13604, 13610, 13627, 13629, 13631, 13663, 13664, 14090, 14129, 14130, 14136, 14151, 14153, 14155
 14187, 14188, 14471, 14472, 14480, 14484, 14544, 14546, 14548, 14593, 14621
** Section: PDMS
*Solid Section, elset=PDMS, material=PDMS
,
*End Part
**  
**
** ASSEMBLY
**
*Assembly, name=Assembly
**  
*Instance, name=t05_L10_theta5050_4unit-1, part=t05_L10_theta5050_4unit
*End Instance
**  
*End Assembly
** 
** MATERIALS
** 
*Material, name=PDMS
*Density
 1e-09,
*Elastic
 2.75, 0.374
** 
** INTERACTION PROPERTIES
** 
*Surface Interaction, name=Contact
1.,
*Friction
0.,
*Surface Behavior, pressure-overclosure=HARD
** 
** BOUNDARY CONDITIONS
** 
** Name: BottomClamp Type: Symmetry/Antisymmetry/Encastre
*Boundary
t05_L10_theta5050_4unit-1.BottomEdge, PINNED
** 
** INTERACTIONS
** 
** Interaction: Int-1
*Contact
*Contact Inclusions, ALL EXTERIOR
*Contact Property Assignment
 ,  , Contact
** ----------------------------------------------------------------
** 
** STEP: Indent
** 
*Step, name=Indent, nlgeom=YES, inc=1000000000
*Dynamic,application=QUASI-STATIC,initial=NO
0.001,460.,1e-06,5.
** 
** BOUNDARY CONDITIONS
** 
** Name: Indent Type: Velocity/Angular velocity
*Boundary, type=VELOCITY
t05_L10_theta5050_4unit-1.TopEdge, 1, 1
t05_L10_theta5050_4unit-1.TopEdge, 2, 2, -0.024
** 
** OUTPUT REQUESTS
** 
*Restart, write, frequency=0
** 
** FIELD OUTPUT: F-Output-1
** 
*Output, field, variable=PRESELECT
** 
** HISTORY OUTPUT: H-Output-1
** 
*Output, history, variable=PRESELECT
*End Step
** ----------------------------------------------------------------
** 
** STEP: Equilibrium
** 
*Step, name=Equilibrium, nlgeom=YES, inc=10000000
*Dynamic,application=MODERATE DISSIPATION,initial=NO
0.001,100.,1e-06,5.
** 
** BOUNDARY CONDITIONS
** 
** Name: Indent Type: Velocity/Angular velocity
*Boundary, type=VELOCITY
t05_L10_theta5050_4unit-1.TopEdge, 2, 2
** 
** OUTPUT REQUESTS
** 
*Restart, write, frequency=0
** 
** FIELD OUTPUT: F-Output-1
** 
*Output, field, variable=PRESELECT
** 
** HISTORY OUTPUT: H-Output-1
** 
*Output, history, variable=PRESELECT
*End Step
** ----------------------------------------------------------------
** 
** STEP: Retract
** 
*Step, name=Retract, nlgeom=YES, inc=10000000
*Dynamic
0.01,500.,1e-10,5.
** 
** BOUNDARY CONDITIONS
** 
** Name: BottomClamp Type: Symmetry/Antisymmetry/Encastre
*Boundary, op=NEW
t05_L10_theta5050_4unit-1.BottomEdge, PINNED
** Name: Indent Type: Velocity/Angular velocity
*Boundary, op=NEW
** 
** OUTPUT REQUESTS
** 
*Restart, write, frequency=0
** 
** FIELD OUTPUT: F-Output-1
** 
*Output, field, variable=PRESELECT
** 
** HISTORY OUTPUT: H-Output-1
** 
*Output, history, variable=PRESELECT
*End Step
