*Heading
** Job name: t05_L10_theta50_50_1unit_dynamics_c460_0929 Model name: t05_L10_theta50-50_TwoBeam_single_Dynamic_0929
** Generated by: Abaqus/CAE 2022
*Preprint, echo=NO, model=NO, history=NO, contact=NO
**
** PARTS
**
*Part, name=t05_L10_theta5050_unit
*Node
      1, 2.37718197e-07, -1.88134493e-07
      2, 2.37718197e-07,          -4.
      3,   5.35981083,          -4.
      4,   5.35981083, -1.88134493e-07
      5,   18.8191223,          -4.
      6,   18.8191223, -1.88134493e-07
      7,   4.70879173,         -14.
      8,   10.6421223,  -21.0710678
      9,   11.2931414,  -21.0710678
     10,   5.35981083,         -14.
     11, 2.37718197e-07,  -30.0710678
     12, 2.37718197e-07,  -31.0710678
     13,   9.98773384,  -31.0710678
     14,   9.98773384,  -30.0710678
     15,  -5.35981083, -1.88118605e-07
     16,  -5.35981083,          -4.
     17,  -18.8191223, -1.88134493e-07
     18,  -18.8191223,          -4.
     19,  -10.6421223,  -21.0710678
     20,  -4.70879173,         -14.
** ... 2106 like lines cut
*Element, type=CPS3
 1,   1,  34,  47
 2,  34, 650,  47
 3,  34,  35, 650
 4,  35, 651, 650
 5,  35,  36, 651
 6,  36, 652, 651
 7,  36,   2, 652
 8,   2,  37, 652
 9,  47, 650,  46
10, 650, 653,  46
11, 650, 651, 653
12, 651, 654, 653
13, 651, 652, 654
14, 652, 655, 654
15, 652,  37, 655
16,  37,  38, 655
17,  46, 653,  45
18, 653, 656,  45
19, 653, 654, 656
20, 654, 657, 656
** ... 3634 like lines cut
*Nset, nset=PDMS, generate
    1,  2126,     1
*Elset, elset=PDMS, generate
    1,  3654,     1
*Nset, nset=TopEdge
   1,   4,   6,  15,  17,  44,  45,  46,  47,  51,  52,  53,  54,  55,  56,  57
  58,  59,  60,  61,  62, 287, 288, 289, 290, 313, 314, 315, 316, 317, 318, 319
 320, 321, 322, 323, 324
*Elset, elset=TopEdge
    1,    9,   17,   25,   33,   48,   56,   64,   72,   80,   88,   96,  104,  112,  120,  128
  136,  144, 1460, 1468, 1476, 1484, 1492, 1494, 1502, 1510, 1518, 1526, 1534, 1542, 1550, 1558
 1566, 1574, 1582, 1590
*Nset, nset=BottomEdge
  12,  13,  24,  27,  32, 269, 270, 271, 272, 273, 274, 275, 276, 277, 528, 529
 530, 531, 532, 533, 534, 535, 536, 590, 591, 592, 593, 594, 595, 596, 597, 623
 624, 625, 626, 627, 628, 629, 630
*Elset, elset=BottomEdge
 1433, 1435, 1437, 1439, 1441, 1443, 1445, 1447, 1449, 1451, 2886, 2888, 2890, 2892, 2894, 2896
 2898, 2900, 2902, 2904, 3058, 3097, 3098, 3104, 3119, 3121, 3123, 3155, 3156, 3439, 3440, 3448
 3452, 3512, 3514, 3516, 3561, 3589
** Section: PDMS
*Solid Section, elset=PDMS, material=PDMS
,
*End Part
**  
**
** ASSEMBLY
**
*Assembly, name=Assembly
**  
*Instance, name=t05_L10_theta5050_unit-1, part=t05_L10_theta5050_unit
*End Instance
**  
*End Assembly
** 
** MATERIALS
** 
*Material, name=PDMS
*Density
 1e-09,
*Elastic
 2.75, 0.374
** 
** INTERACTION PROPERTIES
** 
*Surface Interaction, name=Contact
1.,
*Friction
0.,
*Surface Behavior, pressure-overclosure=HARD
** 
** BOUNDARY CONDITIONS
** 
** Name: BottomClamp Type: Symmetry/Antisymmetry/Encastre
*Boundary
t05_L10_theta5050_unit-1.BottomEdge, PINNED
** 
** INTERACTIONS
** 
** Interaction: Int-1
*Contact
*Contact Inclusions, ALL EXTERIOR
*Contact Property Assignment
 ,  , Contact
** ----------------------------------------------------------------
** 
** STEP: Indent
** 
*Step, name=Indent, nlgeom=YES, inc=1000000000
*Dynamic,application=QUASI-STATIC,initial=NO
0.001,460.,1e-06,5.
** 
** BOUNDARY CONDITIONS
** 
** Name: Indent Type: Velocity/Angular velocity
*Boundary, type=VELOCITY
t05_L10_theta5050_unit-1.TopEdge, 1, 1
t05_L10_theta5050_unit-1.TopEdge, 2, 2, -0.024
** 
** OUTPUT REQUESTS
** 
*Restart, write, frequency=0
** 
** FIELD OUTPUT: F-Output-1
** 
*Output, field, variable=PRESELECT
** 
** HISTORY OUTPUT: H-Output-1
** 
*Output, history, variable=PRESELECT
*End Step
** ----------------------------------------------------------------
** 
** STEP: Equilibrium
** 
*Step, name=Equilibrium, nlgeom=YES, inc=10000000
*Dynamic,application=MODERATE DISSIPATION,initial=NO
0.001,100.,1e-06,5.
** 
** BOUNDARY CONDITIONS
** 
** Name: Indent Type: Velocity/Angular velocity
*Boundary, type=VELOCITY
t05_L10_theta5050_unit-1.TopEdge, 2, 2
** 
** OUTPUT REQUESTS
** 
*Restart, write, frequency=0
** 
** FIELD OUTPUT: F-Output-1
** 
*Output, field, variable=PRESELECT
** 
** HISTORY OUTPUT: H-Output-1
** 
*Output, history, variable=PRESELECT
*End Step
** ----------------------------------------------------------------
** 
** STEP: Retract
** 
*Step, name=Retract, nlgeom=YES, inc=10000000
*Dynamic
0.01,500.,1e-10,5.
** 
** BOUNDARY CONDITIONS
** 
** Name: BottomClamp Type: Symmetry/Antisymmetry/Encastre
*Boundary, op=NEW
t05_L10_theta5050_unit-1.BottomEdge, PINNED
** Name: Indent Type: Velocity/Angular velocity
*Boundary, op=NEW
** 
** OUTPUT REQUESTS
** 
*Restart, write, frequency=0
** 
** FIELD OUTPUT: F-Output-1
** 
*Output, field, variable=PRESELECT
** 
** HISTORY OUTPUT: H-Output-1
** 
*Output, history, variable=PRESELECT
*End Step
