*Heading
** Job name: t1_L10_theta45-50_TwoBeam_mesh4-50_mu1_lambda3 Model name: t1_L10_theta45-50_TwoBeam
** Generated by: Abaqus/CAE 2021
*Preprint, echo=NO, model=NO, history=NO, contact=NO
**
** PARTS
**
*Part, name=t1_L10_theta45-50_TwoBeam
*Node
      1,  -13.4593115,   21.0710678
      2,  -13.4593115,   17.0710678
      3,   2.86068869,   17.0710678
      4,   2.86068869,   21.0710678
      5,  -24.1789322,   17.0710678
      6,  -24.1789322,   21.0710678
      7,  -40.3989334,   21.0710678
      8,  -40.3989334,   17.0710678
      9,  -24.1789322,   7.07106781
     10,   -22.764719,   7.07106781
     11,   -14.764719,   7.07106781
     12,  -13.4593115,   7.07106781
     13,  -8.83138847,           0.
     14,  -7.52598095,           0.
     15,       -31.25,           0.
     16,  -29.8357868,           0.
     17,  -8.83138847,          -9.
     18,  -8.83138847,         -10.
     19,   2.85401917,         -10.
     20,   2.85401917,           0.
** ... 1758 like lines cut
*Element, type=CPE3
 1,   1,  25, 517
 2, 517,  48,   1
 3,  25,  26, 518
 4, 518, 517,  25
 5,  26,  27, 519
 6, 519, 518,  26
 7,  27,   2,  28
 8,  28, 519,  27
 9,  48, 517, 520
10, 520,  47,  48
11, 517, 518, 521
12, 521, 520, 517
13, 518, 519, 522
14, 522, 521, 518
15, 519,  28,  29
16,  29, 522, 519
17,  47, 520, 523
18, 523,  46,  47
19, 520, 521, 524
20, 524, 523, 520
** ... 3060 like lines cut
*Nset, nset=BottomEdge
  18,  19,  21,  24, 381, 382, 383, 384, 385, 386, 387, 388, 389, 390, 391, 392
 393, 394, 395, 396, 397, 398, 471, 472, 473, 474, 475, 476, 477, 478, 479, 480
 481, 482, 483, 484, 485, 486, 487, 488, 489, 490, 491, 492, 493, 494, 495, 496
 497, 498, 499, 500, 501, 502
*Elset, elset=BottomEdge
 1866, 1898, 1930, 1962, 1994, 2026, 2058, 2090, 2122, 2154, 2186, 2218, 2250, 2282, 2314, 2346
 2378, 2410, 2442, 2444, 2476, 2508, 2540, 2572, 2604, 2636, 2668, 2700, 2732, 2764, 2796, 2828
 2860, 2892, 2924, 2956, 2988, 3020, 3051, 3053, 3055, 3057, 3059, 3061, 3063, 3065, 3067, 3069
 3071, 3073, 3075, 3077, 3079
*Nset, nset=TopEdge
   1,   4,   6,   7,  40,  41,  42,  43,  44,  45,  46,  47,  48,  52,  53,  54
  55,  56,  57,  58,  59,  60,  95,  96,  97,  98,  99, 100, 101, 102, 103, 104
 105, 106, 107, 108, 109, 110, 111, 112, 113, 114, 115, 116
*Elset, elset=TopEdge
   2,  10,  18,  26,  34,  42,  50,  58,  66,  74,  87,  95, 103, 111, 119, 127
 135, 143, 151, 159, 162, 170, 178, 186, 194, 202, 210, 218, 226, 234, 242, 250
 258, 266, 274, 282, 290, 298, 306, 314, 322, 330, 338
*Nset, nset=PDMS, generate
    1,  1778,     1
*Elset, elset=PDMS, generate
    1,  3080,     1
** Section: PDMS
*Solid Section, elset=PDMS, controls=EC-1, material=PDMS
,
*End Part
**  
**
** ASSEMBLY
**
*Assembly, name=Assembly
**  
*Instance, name=t1_L10_theta45-50_TwoBeam-1, part=t1_L10_theta45-50_TwoBeam
   19.333588,           0.,           0.
*End Instance
**  
*Elset, elset=_InnerSurf_S1, internal, instance=t1_L10_theta45-50_TwoBeam-1
  353,  355,  357,  359,  361,  363,  365,  367,  369,  371,  373,  375,  377,  379,  381, 1442
 1450, 1458, 1466, 1474, 1482, 1490, 1498, 1506, 1514, 1522, 1530, 1538, 1546, 1554, 1562, 1570
 1578, 1586, 1594, 1602, 1610, 1618, 1626, 1634, 1642, 1650, 1658, 1666, 1674, 1682, 1690, 1698
 1706, 1714, 1722, 1730, 1738, 1746, 1754, 1762, 1770, 1778, 1786, 1794, 1802, 1810, 1818, 1826
 1834, 1835, 1837, 1839, 1841, 1843, 1845, 1847, 1849, 1851, 1853, 1855, 1857, 1859, 1861, 1863
 2445, 2447, 2449, 2451, 2453, 2455, 2457, 2459, 2461, 2463, 2465, 2467, 2469, 2471, 2473
*Elset, elset=_InnerSurf_S2, internal, instance=t1_L10_theta45-50_TwoBeam-1
 1041, 1049, 1057, 1065, 1073, 1081, 1089, 1097, 1105, 1113, 1121, 1129, 1137, 1145, 1153, 1161
 1169, 1177, 1185, 1193, 1201, 1209, 1217, 1225, 1233, 1241, 1249, 1257, 1265, 1273, 1281, 1289
 1297, 1305, 1313, 1321, 1329, 1337, 1345, 1353, 1361, 1369, 1377, 1385, 1393, 1401, 1409, 1417
 1425, 1433, 3052, 3054, 3056, 3058, 3060, 3062, 3064, 3066, 3068, 3070, 3072, 3074, 3076, 3078
 3080,
*Surface, type=ELEMENT, name=InnerSurf
_InnerSurf_S1, S1
_InnerSurf_S2, S2
*Elset, elset=_OutSurf_Left_S2, internal, instance=t1_L10_theta45-50_TwoBeam-1
   82,   90,   98,  106,  114,  122,  130,  138,  146,  154,  346,  392,  438,  484,  530,  576
  622,  668,  714,  760,  806,  852,  898,  944,  990, 2601, 2633, 2665, 2697, 2729, 2761, 2793
 2825, 2857, 2889, 2921, 2953, 2985, 3017, 3049
*Elset, elset=_OutSurf_Left_S3, internal, instance=t1_L10_theta45-50_TwoBeam-1, generate
 1435,  1827,     8
*Surface, type=ELEMENT, name=OutSurf_Left
_OutSurf_Left_S2, S2
_OutSurf_Left_S3, S3
*Elset, elset=_OuterSurf_Right_S2, internal, instance=t1_L10_theta45-50_TwoBeam-1
    7,   15,   23,   31,   39,   47,   55,   63,   71,   79,  389,  435,  481,  527,  573,  619
  665,  711,  757,  803,  849,  895,  941,  987, 1033, 1036, 1044, 1052, 1060, 1068, 1076, 1084
 1092, 1100, 1108, 1116, 1124, 1132, 1140, 1148, 1156, 1164, 1172, 1180, 1188, 1196, 1204, 1212
 1220, 1228, 1236, 1244, 1252, 1260, 1268, 1276, 1284, 1292, 1300, 1308, 1316, 1324, 1332, 1340
 1348, 1356, 1364, 1372, 1380, 1388, 1396, 1404, 1412, 1420, 1428
*Elset, elset=_OuterSurf_Right_S3, internal, instance=t1_L10_theta45-50_TwoBeam-1, generate
 1963,  2411,    32
*Surface, type=ELEMENT, name=OuterSurf_Right
_OuterSurf_Right_S2, S2
_OuterSurf_Right_S3, S3
*End Assembly
** 
** ELEMENT CONTROLS
** 
*Section Controls, name=EC-1, DISTORTION CONTROL=YES
1., 1., 1.
** 
** MATERIALS
** 
*Material, name=PDMS
*Density
 1e-09,
*Elastic
 2.75, 0.374
** 
** INTERACTION PROPERTIES
** 
*Surface Interaction, name=Self_Contact
1.,
*Friction
0.,
*Surface Behavior, pressure-overclosure=HARD
** 
** BOUNDARY CONDITIONS
** 
** Name: BottomClamp Type: Symmetry/Antisymmetry/Encastre
*Boundary
t1_L10_theta45-50_TwoBeam-1.BottomEdge, PINNED
** 
** INTERACTIONS
** 
** Interaction: Inner_Contact
*Contact Pair, interaction=Self_Contact, type=SURFACE TO SURFACE
InnerSurf,
** Interaction: OuterContact_Right
*Contact Pair, interaction=Self_Contact, type=SURFACE TO SURFACE
OuterSurf_Right,
** Interaction: Outer_Contact_Left
*Contact Pair, interaction=Self_Contact, type=SURFACE TO SURFACE
OutSurf_Left,
** ----------------------------------------------------------------
** 
** STEP: Indent
** 
*Step, name=Indent, nlgeom=YES, inc=1000000000
*Dynamic,application=QUASI-STATIC,initial=NO
0.001,50.,1e-06,0.1
** 
** BOUNDARY CONDITIONS
** 
** Name: Indent Type: Velocity/Angular velocity
*Boundary, type=VELOCITY
t1_L10_theta45-50_TwoBeam-1.TopEdge, 1, 1
t1_L10_theta45-50_TwoBeam-1.TopEdge, 2, 2, -0.24
** 
** OUTPUT REQUESTS
** 
*Restart, write, frequency=0
** 
** FIELD OUTPUT: F-Output-1
** 
*Output, field, variable=PRESELECT
** 
** HISTORY OUTPUT: H-Output-1
** 
*Output, history, variable=PRESELECT
*End Step
** ----------------------------------------------------------------
** 
** STEP: Equilibrium
** 
*Step, name=Equilibrium, nlgeom=YES, inc=100000000
*Static
1e-06, 1., 1e-10, 1.
** 
** BOUNDARY CONDITIONS
** 
** Name: BottomClamp Type: Symmetry/Antisymmetry/Encastre
*Boundary, op=NEW
t1_L10_theta45-50_TwoBeam-1.BottomEdge, PINNED
** Name: Indent Type: Velocity/Angular velocity
*Boundary, op=NEW
** 
** OUTPUT REQUESTS
** 
*Restart, write, frequency=0
** 
** FIELD OUTPUT: F-Output-1
** 
*Output, field, variable=PRESELECT, frequency=10
** 
** HISTORY OUTPUT: H-Output-1
** 
*Output, history, variable=PRESELECT, frequency=10
*End Step
